[TITLE]
;;Project Title/Notes
GDRSS SWMM Model
Last Updated by CDM Smith Inc 12/1/2012

[OPTIONS]
;;Option             Value
FLOW_UNITS           CFS
INFILTRATION         HORTON
FLOW_ROUTING         DYNWAVE
LINK_OFFSETS         DEPTH
MIN_SLOPE            0
ALLOW_PONDING        NO
SKIP_STEADY_STATE    NO

IGNORE_SNOWMELT      YES
IGNORE_GROUNDWATER   YES
IGNORE_QUALITY       YES
START_DATE           04/14/2010
START_TIME           00:00:00
REPORT_START_DATE    04/14/2010
REPORT_START_TIME    00:00:00
END_DATE             04/16/2010
END_TIME             00:00:00
SWEEP_START          01/01
SWEEP_END            12/31
DRY_DAYS             0.000000
REPORT_STEP          00:15:00
WET_STEP             00:15:00
DRY_STEP             00:15:00
ROUTING_STEP         0:00:30 

INERTIAL_DAMPING     PARTIAL
NORMAL_FLOW_LIMITED  SLOPE
FORCE_MAIN_EQUATION  H-W
VARIABLE_STEP        0.00
LENGTHENING_STEP     5
MIN_SURFAREA         12.566000
MAX_TRIALS           8
HEAD_TOLERANCE       0.005
SYS_FLOW_TOL         5
LAT_FLOW_TOL         5
MINIMUM_STEP         0.5
THREADS              1

[EVAPORATION]
;;Data Source    Parameters
;;-------------- ----------------
CONSTANT         0.000000
DRY_ONLY         NO

[RAINGAGES]
;;Name           Format    Interval SCF      Source    
;;-------------- --------- ------ ------ ----------
CHS5             CUMULATIVE 0.250000 1.000000 TIMESERIES 20170504_PG002  
CTS1             CUMULATIVE 0.250000 1.000000 TIMESERIES 20170504_PG002  
CTS2             CUMULATIVE 0.250000 1.000000 TIMESERIES 20170504_PG002  
CTS3             CUMULATIVE 0.250000 1.000000 TIMESERIES 20170504_PG002  
CTS4             CUMULATIVE 0.250000 1.000000 TIMESERIES 20170504_PG002  
CTUMA            CUMULATIVE 0.250000 1.000000 TIMESERIES 20170504_PG002  
FRS1             CUMULATIVE 0.250000 1.000000 TIMESERIES 20170504_PG002  
HRS1             CUMULATIVE 0.250000 1.000000 TIMESERIES 20170504_PG002  
HRS2             CUMULATIVE 0.250000 1.000000 TIMESERIES 20170504_PG002  
MAS2             CUMULATIVE 0.250000 1.000000 TIMESERIES 20170504_PG002  
PG01             CUMULATIVE 0.250000 1.000000 TIMESERIES 20170504_PG002  
PG02             CUMULATIVE 0.250000 1.000000 TIMESERIES 20170504_PG002  
PG027            CUMULATIVE 0.250000 1.000000 TIMESERIES 20170504_PG002  
PG028            CUMULATIVE 0.250000 1.000000 TIMESERIES 20170504_PG002  
PG03             CUMULATIVE 0.250000 1.000000 TIMESERIES 20170504_PG002  
PG04             CUMULATIVE 0.250000 1.000000 TIMESERIES 20170504_PG002  
PG05             CUMULATIVE 0.250000 1.000000 TIMESERIES 20170504_PG002  
PG06             CUMULATIVE 0.250000 1.000000 TIMESERIES 20170504_PG002  
PG07             CUMULATIVE 0.250000 1.000000 TIMESERIES 20170504_PG002  
PG08             CUMULATIVE 0.250000 1.000000 TIMESERIES 20170504_PG002  
PG09             CUMULATIVE 0.250000 1.000000 TIMESERIES 20170504_PG002  
PG10             CUMULATIVE 0.250000 1.000000 TIMESERIES 20170504_PG002  
PG11             CUMULATIVE 0.250000 1.000000 TIMESERIES 20170504_PG002  
PG12             CUMULATIVE 0.250000 1.000000 TIMESERIES 20170504_PG002  
PG13             CUMULATIVE 0.250000 1.000000 TIMESERIES 20170504_PG002  
PG14             CUMULATIVE 0.250000 1.000000 TIMESERIES 20170504_PG002  
PG15             CUMULATIVE 0.250000 1.000000 TIMESERIES 20170504_PG002  
PG16             CUMULATIVE 0.250000 1.000000 TIMESERIES 20170504_PG002  
PG17             CUMULATIVE 0.250000 1.000000 TIMESERIES 20170504_PG002  
PG18             CUMULATIVE 0.250000 1.000000 TIMESERIES 20170504_PG002  
PG19             CUMULATIVE 0.250000 1.000000 TIMESERIES 20170504_PG002  
PG20             CUMULATIVE 0.250000 1.000000 TIMESERIES 20170504_PG002  
PG21             CUMULATIVE 0.250000 1.000000 TIMESERIES 20170504_PG002  
PG22             CUMULATIVE 0.250000 1.000000 TIMESERIES 20170504_PG002  
PG23             CUMULATIVE 0.250000 1.000000 TIMESERIES 20170504_PG002  
PG24             CUMULATIVE 0.250000 1.000000 TIMESERIES 20170504_PG002  
PG25             CUMULATIVE 0.250000 1.000000 TIMESERIES 20170504_PG002  
PG26             CUMULATIVE 0.250000 1.000000 TIMESERIES 20170504_PG002  
PG29             CUMULATIVE 0.250000 1.000000 TIMESERIES 20170504_PG002  
PG30             CUMULATIVE 0.250000 1.000000 TIMESERIES 20170504_PG002  
PG31             CUMULATIVE 0.250000 1.000000 TIMESERIES 20170504_PG002  
PG32             CUMULATIVE 0.250000 1.000000 TIMESERIES 20170504_PG002  
PG33             CUMULATIVE 0.250000 1.000000 TIMESERIES 20170504_PG002  
PG34             CUMULATIVE 0.250000 1.000000 TIMESERIES 20170504_PG002  
STS1             CUMULATIVE 0.250000 1.000000 TIMESERIES 20170504_PG002  
STS2             CUMULATIVE 0.250000 1.000000 TIMESERIES 20170504_PG002  
STS3             CUMULATIVE 0.250000 1.000000 TIMESERIES 20170504_PG002  
STS4             CUMULATIVE 0.250000 1.000000 TIMESERIES 20170504_PG002  
STS5             CUMULATIVE 0.250000 1.000000 TIMESERIES 20170504_PG002  
STS6             CUMULATIVE 0.250000 1.000000 TIMESERIES 20170504_PG002  
SYS1             CUMULATIVE 0.250000 1.000000 TIMESERIES 20170504_PG002  
SYS2             CUMULATIVE 0.250000 1.000000 TIMESERIES 20170504_PG002  
SYS3             CUMULATIVE 0.250000 1.000000 TIMESERIES 20170504_PG002  
UTS1             CUMULATIVE 0.250000 1.000000 TIMESERIES 20170504_PG002  

[SUBCATCHMENTS]
;;Name           Rain Gage        Outlet           Area     %Imperv  Width    %Slope   CurbLen  SnowPack        
;;-------------- ---------------- ---------------- -------- -------- -------- -------- -------- ----------------
S1000            PG04             RC11000          213.700000 72.800000 93088.000000 1.000000 0.000000                 
S1003            PG04             RC11003          61.000000 62.700000 26572.000000 1.000000 0.000000                 
S100715          PG04             RC600715         109.300000 47.100000 47611.000000 1.000000 0.000000                 
S100730          PG04             RC600730         84.700000 45.700000 36895.000000 1.000000 0.000000                 
S1011            PG04             RC11011          38.700000 70.200000 16836.000000 1.000000 0.000000                 
S101910          PG11             RC601910         54.800000 43.700000 23858.000000 1.000000 0.000000                 
S101919          PG11             RC601919         291.000000 60.100000 126760.000000 1.000000 0.000000                 
S101925          PG11             RC601925         235.000000 50.400000 102366.000000 1.000000 0.000000                 
S101945          PG11             RC601945         241.000000 54.500000 104980.000000 1.000000 0.000000                 
S102505          PG11             RC602505         114.000000 44.200000 49658.000000 1.000000 0.000000                 
S1031            PG11             RC11031          123.300000 51.000000 53709.000000 1.000000 0.000000                 
S103110          PG11             RC603110         75.000000 52.600000 32670.000000 1.000000 0.000000                 
S103115          PG11             RC603115         249.000000 50.300000 108464.000000 1.000000 0.000000                 
S103150          PG11             RC603150         96.000000 67.700000 41818.000000 1.000000 0.000000                 
S103155          PG11             RC603155         88.000000 40.400000 38333.000000 1.000000 0.000000                 
S103160          PG11             RC603160         67.000000 54.200000 29185.000000 1.000000 0.000000                 
S103175          PG16             RC603175         66.000000 60.600000 28750.000000 1.000000 0.000000                 
S103180          PG16             RC603180         41.000000 43.000000 17860.000000 1.000000 0.000000                 
S103185          PG16             RC603185         132.000000 51.100000 57499.000000 1.000000 0.000000                 
S1035            PG16             RC11035          703.700000 51.100000 306532.000000 1.000000 0.000000                 
;CDM Rev 3/2012 Loading Node
S1039            PG15             RC11039          410.900000 40.700000 178988.000000 1.000000 0.000000                 
S1051            PG16             RC11051          41.500000 43.800000 18077.000000 1.000000 0.000000                 
S105115          PG16             RC605115         60.000000 76.200000 26136.000000 1.000000 0.000000                 
;Area Changed
S105130          PG16             RC605130         47.000000 42.500000 20473.000000 1.000000 0.000000                 
S105140          PG16             RC605140         111.000000 64.200000 48352.000000 1.000000 0.000000                 
S105515          PG16             RC605515         74.000000 74.900000 32234.000000 1.000000 0.000000                 
;Area Changed
S105530          PG16             RC605530         140.000000 43.700000 60984.000000 1.000000 0.000000                 
S105545          PG16             RC605545         143.000000 61.600000 62291.000000 1.000000 0.000000                 
S105905          PG11             RC605905         28.000000 75.300000 12197.000000 1.000000 0.000000                 
S1063            PG16             RC11063          25.000000 65.600000 10890.000000 1.000000 0.000000                 
S106705          PG11             RC606705         85.100000 59.900000 37057.000000 1.000000 0.000000                 
S106715          PG16             RC606715         100.000000 48.000000 43560.000000 1.000000 0.000000                 
S106730          PG16             RC606730         49.000000 68.700000 21344.000000 1.000000 0.000000                 
S106745          PG16             RC606745         54.000000 45.300000 23522.000000 1.000000 0.000000                 
S106750          PG16             RC606750         32.000000 59.000000 13939.000000 1.000000 0.000000                 
S106765          PG16             RC606765         33.000000 39.300000 14375.000000 1.000000 0.000000                 
S106770          PG16             RC606770         78.000000 65.200000 33977.000000 1.000000 0.000000                 
S106785          PG16             RC606785         63.000000 51.500000 27443.000000 1.000000 0.000000                 
S107110          PG26             RC607110         79.000000 60.900000 34412.000000 1.000000 0.000000                 
S107130          PG16             RC607130         164.000000 65.300000 71438.000000 1.000000 0.000000                 
S1075            PG26             RC11075          334.600000 65.900000 145752.000000 1.000000 0.000000                 
S107510          PG26             RC607510         204.000000 74.700000 88862.000000 1.000000 0.000000                 
S107530          PG16             RC607530         183.000000 59.500000 79715.000000 1.000000 0.000000                 
S1081            PG02             RC11081          264.200000 61.500000 115086.000000 1.000000 0.000000                 
S108110          PG02             RC608110         232.000000 65.900000 101059.000000 1.000000 0.000000                 
S108135          PG02             RC608135         91.000000 39.500000 39640.000000 1.000000 0.000000                 
S108520          PG26             RC608520         110.000000 73.000000 47916.000000 1.000000 0.000000                 
S108540          PG26             RC608540         164.000000 57.700000 71438.000000 1.000000 0.000000                 
S108920          PG26             RC608920         176.000000 72.100000 76666.000000 1.000000 0.000000                 
S108925          PG26             RC608925         66.000000 61.400000 28750.000000 1.000000 0.000000                 
S108945          PG26             RC608945         70.000000 48.600000 30492.000000 1.000000 0.000000                 
;9-23-08
S1093            PG26             RC11093          41.300000 39.700000 17988.000000 1.000000 0.000000                 
S1125            PG04             RC1126           50.000000 45.000000 21780.000000 1.000000 0.000000                 
S1130            PG04             RC1131           57.000000 45.000000 24829.000000 1.000000 0.000000                 
S1155            PG04             RC1156           312.000000 45.000000 135907.000000 1.000000 0.000000                 
S1170            PG04             RC1171           85.000000 45.000000 37026.000000 1.000000 0.000000                 
S1185            PG15             RC11185          1186.000000 53.000000 516622.000000 1.000000 0.000000                 
S1187            PG15             RC11187          665.000000 41.700000 289674.000000 1.000000 0.000000                 
S1188            PG15             RC11188          729.000000 50.000000 317552.000000 1.000000 0.000000                 
S1215            PG15             RC11215          110.000000 37.000000 47916.000000 1.000000 0.000000                 
S1220            PG15             RC11220          62.000000 37.000000 27007.000000 1.000000 0.000000                 
S1225            PG15             RC11225          90.000000 37.000000 39204.000000 1.000000 0.000000                 
S1230            PG24             RC11230          365.000000 37.000000 158994.000000 1.000000 0.000000                 
S1310            PG15             RC11310          420.000000 41.000000 182952.000000 1.000000 0.000000                 
S1320            PG15             RC11320          318.000000 41.000000 138521.000000 1.000000 0.000000                 
S1335            PG15             RC11335          240.000000 41.000000 104544.000000 1.000000 0.000000                 
S1345            PG24             RC11345          1305.000000 41.000000 568458.000000 1.000000 0.000000                 
S1535            PG24             RC11535          1034.000000 35.000000 450410.000000 1.000000 0.000000                 
S1545            PG24             RC11545          1155.000000 40.000000 503118.000000 1.000000 0.000000                 
S1550            PG18             RC11550          291.000000 38.000000 126760.000000 1.000000 0.000000                 
S1570            PG18             RC11570          1077.000000 42.000000 469141.000000 1.000000 0.000000                 
S1571            PG03             RC11571          1797.000000 45.000000 782773.000000 1.000000 0.000000                 
S1601            PG02             RC31601          42.500000 81.000000 18522.000000 1.000000 0.000000                 
;CDM Rev 3/2012 Loading Node
S160120          PG26             RC3160120        11.500000 90.000000 4996.000000 1.000000 0.000000                 
S160121          PG26             RC3160121        76.700000 63.800000 33402.000000 1.000000 0.000000                 
S160123          PG02             RC3160123        46.800000 73.100000 20390.000000 1.000000 0.000000                 
S160145          PG02             RC3160145        176.800000 69.200000 77001.000000 1.000000 0.000000                 
S160160          PG02             RC3160160        254.200000 65.600000 110738.000000 1.000000 0.000000                 
S160161          PG02             RC3160161        127.400000 86.400000 55491.000000 1.000000 0.000000                 
;CDM Rev 3/2012 Loading Node
S160170          PG02             RC3160170        103.200000 88.100000 44950.000000 1.000000 0.000000                 
S160175          PG02             RC3160175        64.100000 90.000000 27939.000000 1.000000 0.000000                 
S160180          PG02             RC3160180        32.000000 44.300000 13935.000000 1.000000 0.000000                 
;1st	Hamilton	8-Sep
S1605            PG26             RC31605          20.300000 89.700000 8825.000000 1.000000 0.000000                 
S160500          PG26             RC3160500        26.100000 90.000000 11382.000000 1.000000 0.000000                 
S160520          PG26             RC3160520        24.000000 90.000000 10441.000000 1.000000 0.000000                 
S160530          PG26             RC3160530        12.600000 90.000000 5506.000000 1.000000 0.000000                 
S160540          PG26             RC3160540        14.500000 90.000000 6329.000000 1.000000 0.000000                 
S160555          PG26             RC3160555        49.300000 89.300000 21471.000000 1.000000 0.000000                 
S160570          PG26             RC3160570        40.600000 90.000000 17672.000000 1.000000 0.000000                 
;Griswold	8-Sep
S1609            PG26             RC31609          15.600000 56.300000 6787.000000 1.000000 0.000000                 
S160900          PG26             RC3160900        25.000000 90.000000 10877.000000 1.000000 0.000000                 
S160910          PG26             RC3160910        27.300000 90.000000 11874.000000 1.000000 0.000000                 
;Woodward	8-Sep
S1613            PG26             RC31613          13.800000 72.300000 6011.000000 1.000000 0.000000                 
S161300          PG18             RC3161300        66.900000 81.700000 29150.000000 1.000000 0.000000                 
S161330          PG18             RC3161330        16.500000 90.000000 7205.000000 1.000000 0.000000                 
S161360          PG18             RC3161360        108.400000 88.200000 47206.000000 1.000000 0.000000                 
S161370          PG18             RC3161370        79.300000 77.200000 34547.000000 1.000000 0.000000                 
S161380          PG18             RC3161380        208.200000 62.300000 90683.000000 1.000000 0.000000                 
S161385          PG18             RC3161385        28.200000 50.200000 12275.000000 1.000000 0.000000                 
S161420          PG26             RC3161420        24.700000 89.000000 10777.000000 1.000000 0.000000                 
S161430          PG26             RC3161430        39.900000 90.000000 17372.000000 1.000000 0.000000                 
S161460          PG26             RC3161460        76.500000 81.500000 33302.000000 1.000000 0.000000                 
S161710          PG18             RC3161710        12.000000 66.000000 5227.000000 1.000000 0.000000                 
S161716          PG18             RC3161716        9.400000 90.000000 4073.000000 1.000000 0.000000                 
S161722          PG18             RC3161722        92.100000 67.800000 40101.000000 1.000000 0.000000                 
S161726          PG18             RC3161726        65.400000 89.600000 28471.000000 1.000000 0.000000                 
S161781          PG02             RC3161781        210.500000 70.100000 91706.000000 1.000000 0.000000                 
S161785          PG18             RC3161785        295.400000 72.000000 128686.000000 1.000000 0.000000                 
S161791          PG18             RC3161791        478.800000 56.700000 208544.000000 1.000000 0.000000                 
S161796          PG18             RC3161796        606.800000 50.300000 264331.000000 1.000000 0.000000                 
;Randolph	8-Sep
S1621            PG26             RC31621          19.800000 88.900000 8632.000000 1.000000 0.000000                 
S16210           PG26             RC316210         37.200000 89.600000 16226.000000 1.000000 0.000000                 
S162110          PG20             RC3162110        23.500000 90.000000 10228.000000 1.000000 0.000000                 
S162120          PG20             RC3162120        32.800000 90.000000 14270.000000 1.000000 0.000000                 
S162135          PG20             RC3162135        9.700000 90.000000 4221.000000 1.000000 0.000000                 
S162144          PG20             RC3162144        83.700000 74.800000 36460.000000 1.000000 0.000000                 
S162155          PG20             RC3162155        24.000000 31.100000 10467.000000 1.000000 0.000000                 
S162165          PG20             RC3162165        33.000000 51.200000 14362.000000 1.000000 0.000000                 
S162180          PG26             RC3162180        14.800000 90.000000 6451.000000 1.000000 0.000000                 
S162195          PG26             RC3162195        20.600000 68.100000 8952.000000 1.000000 0.000000                 
S162205          PG26             RC3162205        51.100000 76.400000 22250.000000 1.000000 0.000000                 
S162210          PG26             RC3162210        26.200000 90.000000 11417.000000 1.000000 0.000000                 
S162230          PG26             RC3162230        19.000000 90.000000 8255.000000 1.000000 0.000000                 
S162265          PG26             RC3162265        8.100000 90.000000 3528.000000 1.000000 0.000000                 
;Hastings	8-Sep
S1627            PG26             RC31627          30.300000 88.000000 13187.000000 1.000000 0.000000                 
S162700          PG20             RC3162700        22.200000 90.000000 9653.000000 1.000000 0.000000                 
S162770          PG20             RC3162770        42.400000 73.000000 18483.000000 1.000000 0.000000                 
;revised	Rivard	8-Sep
S1631            PG26             RC31631          29.600000 79.100000 12895.000000 1.000000 0.000000                 
S163100          PG20             RC3163100        70.500000 67.800000 30710.000000 1.000000 0.000000                 
S163126          PG20             RC3163126        20.700000 84.600000 8999.000000 1.000000 0.000000                 
S163140          PG20             RC3163140        11.200000 16.800000 4887.000000 1.000000 0.000000                 
S163186          PG20             RC3163186        21.400000 47.900000 9304.000000 1.000000 0.000000                 
S163200          PG20             RC3163200        43.600000 48.300000 18975.000000 1.000000 0.000000                 
;revised	Riopelle	8-Sep
S1635            PG26             RC31635          61.800000 61.000000 26919.000000 1.000000 0.000000                 
S163510          PG20             RC3163510        18.700000 25.700000 8128.000000 1.000000 0.000000                 
S163520          PG20             RC3163520        18.200000 50.600000 7906.000000 1.000000 0.000000                 
S163536          PG20             RC3163536        35.200000 86.400000 15337.000000 1.000000 0.000000                 
S163550          PG20             RC3163550        46.300000 77.900000 20173.000000 1.000000 0.000000                 
;revised	Orleans	8-Sep	ASI	9-Mar
S1639            PG20             RC31639          67.700000 54.700000 29472.000000 1.000000 0.000000                 
S163910          PG20             RC3163910        22.400000 60.400000 9775.000000 1.000000 0.000000                 
;revised	Dubois	8-Sep
S1643            PG20             RC31643          89.000000 66.200000 38768.000000 1.000000 0.000000                 
S164600          PG20             RC3164600        239.800000 52.800000 104435.000000 1.000000 0.000000                 
S164610          PG20             RC3164610        98.400000 53.300000 42855.000000 1.000000 0.000000                 
S164630          PG20             RC3164630        151.900000 39.400000 66159.000000 1.000000 0.000000                 
S164640          PG20             RC3164640        119.100000 56.100000 51889.000000 1.000000 0.000000                 
S164660          PG20             RC3164660        103.000000 67.600000 44862.000000 1.000000 0.000000                 
S164670          PG20             RC3164670        91.000000 46.600000 39635.000000 1.000000 0.000000                 
S164690          PG18             RC3164690        66.200000 78.100000 28841.000000 1.000000 0.000000                 
;CDM Rev 3/2012 Loading Node
S1647            PG20             RC31647          62.300000 30.800000 27125.000000 1.000000 0.000000                 
S164700          PG18             RC3164700        80.100000 90.000000 34909.000000 1.000000 0.000000                 
S1651            PG20             RC31651          125.300000 43.400000 54583.000000 1.000000 0.000000                 
;revised	Jos	Campau	8-Sep
S1655            PG20             RC31655          119.800000 40.100000 52180.000000 1.000000 0.000000                 
S16550           PG20             RC316550         114.000000 70.400000 49642.000000 1.000000 0.000000                 
S165510          PG20             RC3165510        150.200000 38.700000 65425.000000 1.000000 0.000000                 
S165530          PG19             RC3165530        504.400000 72.400000 219720.000000 1.000000 0.000000                 
S165540          PG19             RC3165540        86.700000 79.300000 37751.000000 1.000000 0.000000                 
S165555          PG20             RC3165555        62.300000 40.300000 27123.000000 1.000000 0.000000                 
S165560          PG20             RC3165560        55.600000 42.400000 24233.000000 1.000000 0.000000                 
S165570          PG20             RC3165570        23.300000 52.300000 10137.000000 1.000000 0.000000                 
S165590          PG20             RC3165590        112.400000 65.300000 48978.000000 1.000000 0.000000                 
S165600          PG20             RC3165600        247.500000 19.800000 107804.000000 1.000000 0.000000                 
S165610          PG20             RC3165610        263.500000 42.500000 114772.000000 1.000000 0.000000                 
S165630          PG20             RC3165630        72.400000 38.800000 31558.000000 1.000000 0.000000                 
S165640          PG20             RC3165640        36.100000 45.400000 15706.000000 1.000000 0.000000                 
;revised	Adair	8-Sep
S1663            PG20             RC31663          14.400000 34.100000 6278.000000 1.000000 0.000000                 
S166300          PG20             RC3166300        43.100000 52.900000 18755.000000 1.000000 0.000000                 
S166310          PG20             RC3166310        71.400000 44.200000 31114.000000 1.000000 0.000000                 
S166330          PG20             RC3166330        33.900000 43.400000 14765.000000 1.000000 0.000000                 
S166350          PG20             RC3166350        63.600000 51.300000 27714.000000 1.000000 0.000000                 
S1671            PG20             RC11671          84.000000 65.200000 36590.000000 1.000000 0.000000                 
S167104          PG31             RC367104         73.000000 45.300000 31799.000000 1.000000 0.000000                 
S167114          PG31             RC367114         49.000000 40.700000 21344.000000 1.000000 0.000000                 
S167122          PG31             RC367122         87.000000 39.700000 37897.000000 1.000000 0.000000                 
S167130          PG31             RC367130         33.000000 48.000000 14375.000000 1.000000 0.000000                 
S167204          PG31             RC367204         81.000000 42.000000 35284.000000 1.000000 0.000000                 
S167210          PG31             RC367210         65.000000 36.500000 28314.000000 1.000000 0.000000                 
S167218          PG31             RC367218         77.000000 38.500000 33541.000000 1.000000 0.000000                 
S167228          PG31             RC367228         29.000000 40.900000 12632.000000 1.000000 0.000000                 
S167304          PG31             RC367304         61.000000 41.400000 26572.000000 1.000000 0.000000                 
S167312          PG31             RC367312         41.000000 36.100000 17860.000000 1.000000 0.000000                 
S167320          PG31             RC367320         97.000000 40.600000 42253.000000 1.000000 0.000000                 
S167328          PG31             RC367328         54.000000 42.500000 23522.000000 1.000000 0.000000                 
S167404          PG31             RC367404         68.000000 49.800000 29621.000000 1.000000 0.000000                 
S167412          PG31             RC367412         63.000000 56.500000 27443.000000 1.000000 0.000000                 
S167420          PG31             RC367420         145.000000 63.600000 63162.000000 1.000000 0.000000                 
S168104          PG31             RC368104         144.000000 39.800000 62726.000000 1.000000 0.000000                 
S168112          PG31             RC368112         153.000000 39.100000 66647.000000 1.000000 0.000000                 
S168122          PG31             RC368122         106.000000 39.400000 46174.000000 1.000000 0.000000                 
S168202          PG31             RC368202         106.000000 39.200000 46174.000000 1.000000 0.000000                 
S168208          PG31             RC368208         100.000000 39.300000 43560.000000 1.000000 0.000000                 
S168216          PG31             RC368216         106.000000 33.800000 46174.000000 1.000000 0.000000                 
S168224          PG31             RC368224         43.000000 39.600000 18731.000000 1.000000 0.000000                 
S168304          PG31             RC368304         121.000000 40.700000 52708.000000 1.000000 0.000000                 
S168310          PG31             RC368310         110.000000 39.900000 47916.000000 1.000000 0.000000                 
S168318          PG31             RC368318         169.000000 40.800000 73616.000000 1.000000 0.000000                 
;Belle Isle CSO
S168326          PG31             RC368326         57.000000 45.600000 24829.000000 1.000000 0.000000                 
S16868           PG31             RC36868          41.500000 74.600000 18077.000000 1.000000 0.000000                 
S168702          PG31             RC368702         111.000000 36.100000 48352.000000 1.000000 0.000000                 
S168712          PG31             RC368712         191.000000 38.600000 83200.000000 1.000000 0.000000                 
;McClellen	Drainage	Areas
S168722          PG31             RC368722         82.000000 44.200000 35719.000000 1.000000 0.000000                 
S169002          PG22             RC369002         106.000000 38.000000 46174.000000 1.000000 0.000000                 